java/SFINA/configuration_files/experiment-LineRemovalRandomCase30/output/time_9/iteration_1/flow/links.txt
id,current,real_power_from,reactive_power_from,real_power_to,reactive_power_to,resistance,reactance,susceptance,rateA,rateB,rateC,ratio,angle,angmin,angmax
1,0.0,12.38692595237919,-5.572302124412509,-12.352922036550748,2.674313871897642,0.02,0.06,0.03,130.0,130.0,130.0,0.0,0.0,-360.0,360.0
2,0.0,1.7638868957556175,-0.7414494665001214,-1.7622978230759194,-1.2497779460350344,0.05,0.19,0.02,130.0,130.0,130.0,0.0,0.0,-360.0,360.0
3,0.0,-15.474932631595726,5.509483854990487,15.644040783602225,-7.0276977675130565,0.06,0.17,0.02,65.0,65.0,65.0,0.0,0.0,-360.0,360.0
4,0.0,-0.6377021771920968,0.04977794662935268,0.6377432035538119,-0.04961384118249251,0.01,0.04,0.0,130.0,130.0,130.0,0.0,0.0,-360.0,360.0
5,0.0,23.492396734059497,10.078210699132036,-23.155087005757085,-10.664033679082287,0.05,0.2,0.02,130.0,130.0,130.0,0.0,0.0,-360.0,360.0
6,0.0,31.252535897759586,10.040109348991189,-30.593372889072505,-9.989327864248375,0.06,0.18,0.02,65.0,65.0,65.0,0.0,0.0,-360.0,360.0
7,0.0,24.970666882367407,10.75940471110305,-24.89370862332712,-10.451571674941915,0.01,0.04,0.0,90.0,90.0,90.0,0.0,0.0,-360.0,360.0
8,0.0,23.15508700575724,10.841695438782844,-22.800000000000107,-10.900000000000077,0.05,0.12,0.01,70.0,70.0,70.0,0.0,0.0,-360.0,360.0
9,0.0,3.6329614195782884,2.085419493935517,-3.626554174549411,-2.986739282929174,0.03,0.08,0.01,130.0,130.0,130.0,0.0,0.0,-360.0,360.0
10,0.0,23.436556068643835,24.06021207718245,-23.314816909820046,-23.57325544188729,0.01,0.04,0.0,32.0,32.0,32.0,0.0,0.0,-360.0,360.0
11,0.0,8.586160075916498,-6.434723739097064,-8.586160075916498,6.6956133936652495,0.0,0.21,0.0,65.0,65.0,65.0,0.0,0.0,-360.0,360.0
12,0.0,4.906377186242816,-3.6769849937686407,-4.906377186242815,3.904154216794234,0.0,0.56,0.0,32.0,32.0,32.0,0.0,0.0,-360.0,360.0
13,0.0,0.0,0.0,0.0,0.0,0.0,0.21,0.0,65.0,65.0,65.0,0.0,0.0,-360.0,360.0
14,0.0,8.586160075941494,-6.695613393659832,-8.586160075941496,6.832269879386435,0.0,0.11,0.0,65.0,65.0,65.0,0.0,0.0,-360.0,360.0
15,0.0,-23.881783986601604,5.477311608994572,23.881783986601604,-3.912284614348352,0.0,0.26,0.0,65.0,65.0,65.0,0.0,0.0,-360.0,360.0
16,0.0,-36.99999999999927,-8.625545742779154,36.99999999999926,10.702506857013262,0.0,0.14,0.0,65.0,65.0,65.0,0.0,0.0,-360.0,360.0
17,0.0,2.8776434425541915,2.2270225210098835,-2.8613129993119695,-2.1916398939850703,0.12,0.26,0.0,32.0,32.0,32.0,0.0,0.0,-360.0,360.0
18,0.0,-0.9594274291675599,2.810807836118735,0.9657739608843455,-2.799021420073277,0.07,0.13,0.0,32.0,32.0,32.0,0.0,0.0,-360.0,360.0
19,0.0,7.076734344916842,-0.2716367220612359,-7.030033603142797,0.3754161482257838,0.09,0.2,0.0,32.0,32.0,32.0,0.0,0.0,-360.0,360.0
20,0.0,-3.3386870006878455,0.5916398939851997,3.3651839903575356,-0.5675517215582089,0.22,0.2,0.0,16.0,16.0,16.0,0.0,0.0,-360.0,360.0
21,0.0,-3.499999999999934,-1.8000000000000362,3.513228458695339,1.8314175894016231,0.08,0.19,0.0,16.0,16.0,16.0,0.0,0.0,-360.0,360.0
22,0.0,3.2127154239904767,0.9254308479811088,-3.1999999999999362,-0.9000000000000279,0.11,0.22,0.0,16.0,16.0,16.0,0.0,0.0,-360.0,360.0
23,0.0,11.807849598057492,4.333981129309407,-11.701842001108755,-4.104298002587135,0.06,0.13,0.0,16.0,16.0,16.0,0.0,0.0,-360.0,360.0
24,0.0,2.2018420011086954,0.7042980025869784,-2.199999999999966,-0.6999999999999419,0.03,0.07,0.0,32.0,32.0,32.0,0.0,0.0,-360.0,360.0
25,0.0,5.915586873348007,4.6247769164974315,-5.863221813294653,-4.502591776372941,0.09,0.21,0.0,32.0,32.0,32.0,0.0,0.0,-360.0,360.0
26,0.0,12.58111772934874,7.812455644477942,-12.513228458695119,-7.631417589401618,0.03,0.08,0.0,32.0,32.0,32.0,0.0,0.0,-360.0,360.0
27,0.0,-1.5429237631435804,-11.911678955397988,1.5875815358535508,12.015880425054586,0.03,0.07,0.0,32.0,32.0,32.0,0.0,0.0,-360.0,360.0
28,0.0,-3.3456567040026504,-8.637200785255388,3.407623913026378,8.769987661734804,0.07,0.15,0.0,32.0,32.0,32.0,0.0,0.0,-360.0,360.0
29,0.0,-19.08758153584902,-23.21588042505525,19.17911647424512,23.398950301847453,0.01,0.02,0.0,32.0,32.0,32.0,0.0,0.0,-360.0,360.0
30,0.0,-15.743673375228989,-0.05885770635028591,16.000000000001755,0.5715109558958157,0.1,0.2,0.0,16.0,16.0,16.0,0.0,0.0,-360.0,360.0
31,0.0,-0.9967403872681533,11.046524772358259,1.1443634284032767,-10.825090210655572,0.12,0.18,0.0,16.0,16.0,16.0,0.0,0.0,-360.0,360.0
32,0.0,16.068299775994834,-3.3691688991368847,-15.717895752204045,4.096931102394679,0.13,0.27,0.0,16.0,16.0,16.0,0.0,0.0,-360.0,360.0
33,0.0,-9.844363428403307,4.163618227359965,10.06972638644766,-3.772198352861874,0.19,0.33,0.0,16.0,16.0,16.0,0.0,0.0,-360.0,360.0
34,0.0,3.546674621394278,2.370945424519363,-3.4999999999999774,-2.300000000000025,0.25,0.38,0.0,16.0,16.0,16.0,0.0,0.0,-360.0,360.0
35,0.0,-13.61640100784182,1.401252928342702,13.827825419374573,-0.9976245063256232,0.11,0.21,0.0,16.0,16.0,16.0,0.0,0.0,-360.0,360.0
36,0.0,-13.082174580641315,-7.819868061100242,13.082174580641311,8.81527771274503,0.0,0.4,0.0,65.0,65.0,65.0,0.0,0.0,-360.0,360.0
37,0.0,13.791981562427088,4.300619021350164,-13.332810587779809,-3.424019887932628,0.22,0.42,0.0,16.0,16.0,16.0,0.0,0.0,-360.0,360.0
38,0.0,7.122394950487271,1.6745629326654834,-6.951090403779483,-1.3533669075883799,0.32,0.6,0.0,16.0,16.0,16.0,0.0,0.0,-360.0,360.0
39,0.0,10.932810391600777,2.524020078147906,-10.599999676446798,-1.8999999872341946,0.24,0.45,0.0,16.0,16.0,16.0,0.0,0.0,-360.0,360.0
40,0.0,-6.685183090155684,-6.426744558105867,6.735153459755608,4.7568740228547,0.06,0.2,0.02,32.0,32.0,32.0,0.0,0.0,-360.0,360.0
41,0.0,-6.33572044180991,-3.9591754799576275,6.347021120957439,3.0629940382885024,0.02,0.06,0.01,32.0,32.0,32.0,0.0,0.0,-360.0,360.0
